18
Atoms. Timestep: 500000
C 26.9461 8.9185 19.6274
C 27.4667 8.80412 21.0331
H 26.9331 7.96111 19.0666
H 25.8597 9.20275 19.5444
H 28.4818 8.67109 21.0559
H 27.2451 9.66999 21.7075
C 26.809 7.67388 21.9158
C 27.2 6.35709 21.3574
H 25.7861 7.90238 21.9993
H 27.285 7.82523 22.9113
H 26.6361 5.62666 21.9978
H 26.7595 6.26477 20.361
C 28.7343 5.93485 21.2297
C 28.9449 4.48119 21.5551
H 29.4215 6.51145 21.8814
H 28.9548 6.10632 20.211
H 28.5048 4.20357 22.5537
H 28.3568 3.79524 20.8586
